/batch
/config,noeldb,1     ! force off writing results to database
*get,_wallstrt,active,,time,wall
! ANSYS input file written by Workbench version 2021 R1
! File used for geometry attach: C:\Users\LUCIO PASSOS\Dropbox\websiteaula\CFD\Ansys\ap20220117_files\dp0\SYS\DM\SYS.agdb
/title,ap20220117--Steady-State Thermal (A5)
! ****** Begin Custom Load Command Snippet ******
/COM, ACT Extensions:
/COM,     LSDYNA, 2021.1
/COM,     5f463412-bd3e-484b-87e7-cbc0a665e474, wbex
/COM,
! ****** End   Custom Load Command Snippet ******
*DIM,_wb_ProjectScratch_dir,string,248
_wb_ProjectScratch_dir(1) = 'C:\Users\LUCIO PASSOS\Dropbox\websiteaula\CFD\Ansys\_ProjectScratch\ScrC4EF\'
*DIM,_wb_SolverFiles_dir,string,248
_wb_SolverFiles_dir(1) = 'C:\Users\LUCIO PASSOS\Dropbox\websiteaula\CFD\Ansys\ap20220117_files\dp0\SYS\MECH\'
*DIM,_wb_userfiles_dir,string,248
_wb_userfiles_dir(1) = 'C:\Users\LUCIO PASSOS\Dropbox\websiteaula\CFD\Ansys\ap20220117_files\user_files\'
/com,--- Data in consistent MKS units. See Solving Units in the help system for more information.
/units,MKS
/nopr
/wb,file,start              !  signify a WB generated input file
/prep7
! Turn off shape checking because checks already performed inside WB mesher.
! See help system for more information.
SHPP,OFF,,NOWARN
/nolist
etcon,set             ! allow ANSYS to choose best KEYOP's for 180x elements, resets any applicable keyopt to MAPDL defaults
/com,*********** Nodes for the whole assembly ***********
nblock,3,,8454
(1i9,3e20.9e3)
        1     9.500000000E-01     5.000000000E-02     5.000000000E-02
        2     9.500000000E-01     5.000000000E-02     1.000000000E-01
        3     9.500000000E-01     5.000000000E-02     1.500000000E-01
        4     9.500000000E-01     5.000000000E-02     2.000000000E-01
        5     9.000000000E-01     5.000000000E-02     5.000000000E-02
        6     9.000000000E-01     5.000000000E-02     1.000000000E-01
        7     9.000000000E-01     5.000000000E-02     1.500000000E-01
        8     9.000000000E-01     5.000000000E-02     2.000000000E-01
        9     8.500000000E-01     5.000000000E-02     5.000000000E-02
       10     8.500000000E-01     5.000000000E-02     1.000000000E-01
       11     8.500000000E-01     5.000000000E-02     1.500000000E-01
       12     8.500000000E-01     5.000000000E-02     2.000000000E-01
       13     8.000000000E-01     5.000000000E-02     5.000000000E-02
       14     8.000000000E-01     5.000000000E-02     1.000000000E-01
       15     8.000000000E-01     5.000000000E-02     1.500000000E-01
       16     8.000000000E-01     5.000000000E-02     2.000000000E-01
       17     7.500000000E-01     5.000000000E-02     5.000000000E-02
       18     7.500000000E-01     5.000000000E-02     1.000000000E-01
       19     7.500000000E-01     5.000000000E-02     1.500000000E-01
       20     7.500000000E-01     5.000000000E-02     2.000000000E-01
! ... 7667 like lines cut
/wb,elem,start            !  set before creation of elements
/com,*********** Elements for Body 1 "Solid" ***********
et,1,278
eblock,19,solid,,6000
(19i9)
        1        1        1        1        0        0        0        0        8        0        1        1     7292     7288     7192     5605     7528     7287     7286
        1        1        1        1        0        0        0        0        8        0        2        1     7192     7288     7292        2     7211     7289     7293
        1        1        1        1        0        0        0        0        8        0        3        2     7211     7289     7293        3     7230     7290     7294
        1        1        1        1        0        0        0        0        8        0        4        3     7230     7290     7294        4     7249     7291     7295
        1        1        1        1        0        0        0        0        8        0        5        4     7249     7291     7295     5606     6807     6806     6805
        1        1        1        1        0        0        0        0        8        0        6        1       77     7296     7292     5605     5586     7529     7528
        1        1        1        1        0        0        0        0        8        0        7        1     7292     7296       77        2     7293     7297       78
        1        1        1        1        0        0        0        0        8        0        8        2     7293     7297       78        3     7294     7298       79
        1        1        1        1        0        0        0        0        8        0        9        3     7294     7298       79        4     7295     7299       80
        1        1        1        1        0        0        0        0        8        0       10        4     7295     7299       80     5606     6805     6804     5625
        1        1        1        1        0        0        0        0        8        0       11       77      153     7300     7296     5586     5567     7530     7529
        1        1        1        1        0        0        0        0        8        0       12       77     7296     7300      153       78     7297     7301      154
        1        1        1        1        0        0        0        0        8        0       13       78     7297     7301      154       79     7298     7302      155
        1        1        1        1        0        0        0        0        8        0       14       79     7298     7302      155       80     7299     7303      156
        1        1        1        1        0        0        0        0        8        0       15       80     7299     7303      156     5625     6804     6803     5644
        1        1        1        1        0        0        0        0        8        0       16      153      229     7304     7300     5567     5548     7531     7530
        1        1        1        1        0        0        0        0        8        0       17      153     7300     7304      229      154     7301     7305      230
        1        1        1        1        0        0        0        0        8        0       18      154     7301     7305      230      155     7302     7306      231
        1        1        1        1        0        0        0        0        8        0       19      155     7302     7306      231      156     7303     7307      232
        1        1        1        1        0        0        0        0        8        0       20      156     7303     7307      232     5644     6803     6802     5663
! ... 5981 like lines cut
!Material Id = {A7BA3D66-1A77-4865-A7EC-05F05903404B}
/wb,elem,end               !  done creating elements
/com,*********** Send User Defined Coordinate System(s) ***********
csys,0
toffst,273.15,  ! Temperature offset from absolute zero
/wb,mat,start              !  starting to send materials
/com,*********** Send Materials ***********
Temperature = 'TEMP' ! Temperature
MP,DENS,1,2300,	! kg m^-3
MP,ALPX,1,1.4e-05,	! C^-1
MP,C,1,780,	! J kg^-1 C^-1
MP,KXX,1,0.72,	! W m^-1 C^-1
MP,EX,1,30000000000,	! Pa
MP,NUXY,1,0.18,

/wb,mat,end                !  done sending materials
!************************* Model Summary ********************
!Solid,	Concrete,	matid,	1
!************************* End Model Summary ********************
! get the diagonal of the bounding box. Needed later for other things
*get,_xmin,node,,mnloc,x
*get,_ymin,node,,mnloc,y
*get,_zmin,node,,mnloc,z
*get,_xmax,node,,mxloc,x
*get,_ymax,node,,mxloc,y
*get,_zmax,node,,mxloc,z
_ASMDIAG=(_xmax-_xmin)*(_xmax-_xmin)+(_ymax-_ymin)*(_ymax-_ymin)+(_zmax-_zmin)*(_zmax-_zmin)
_ASMDIAG=SQRT(_ASMDIAG)
/wb,contact,start          !  starting to send contact
/wb,contact,end            !  done creating contacts
/com,*********** Send Named Selection as Node Component ***********
CMBLOCK,FACE_SUPERIOR,NODE,      126
(8i10)
      6727      6728      6729      6730      6731      6732      6733      6734
      6735      6736      6737      6738      6739      6740      6741      6742
      6743      6744      6745      6746      6886      7182      7183      7184
      7185      7186      7587      7588      7589      7590      7591      7592
      7593      7594      7595      7596      7597      7598      7599      7600
      7601      7602      7603      7604      7605      7606      7607      7608
      7609      7610      7611      7612      7613      7614      7615      7616
      7617      7618      7619      7620      7621      7622      7623      7624
      7625      7626      7627      7628      7629      7630      7631      7632
      7633      7634      7635      7636      7637      7638      7639      7640
      7641      7642      7643      7644      7645      7646      7647      7648
      7649      7650      7651      7652      7653      7654      7655      7656
      7657      7658      7659      7660      7661      7662      7663      7664
      7665      7666      7667      7668      7669      7670      7671      7672
      7673      7674      7675      7676      7677      7678      7679      7680
      7681      7682      7683      7684      7685      7686
/com,*********** Send Named Selection as Node Component ***********
CMBLOCK,FACE_LATERAL1,NODE,      366
(8i10)
      6746      6747      6748      6749      6750      6751      6752      6753
      6754      6755      6756      6757      6758      6759      6760      6761
      6762      6763      6764      6765      6766      6767      6768      6769
      6770      6771      6772      6773      6774      6775      6776      6777
      6778      6779      6780      6781      6782      6783      6784      6785
      6786      6787      6788      6789      6790      6791      6792      6793
      6794      6795      6796      6797      6798      6799      6800      6801
      6802      6803      6804      6805      6806      7287      7288      7289
      7290      7291      7292      7293      7294      7295      7296      7297
      7298      7299      7300      7301      7302      7303      7304      7305
      7306      7307      7308      7309      7310      7311      7312      7313
      7314      7315      7316      7317      7318      7319      7320      7321
      7322      7323      7324      7325      7326      7327      7328      7329
      7330      7331      7332      7333      7334      7335      7336      7337
      7338      7339      7340      7341      7342      7343      7344      7345
      7346      7347      7348      7349      7350      7351      7352      7353
      7354      7355      7356      7357      7358      7359      7360      7361
      7362      7363      7364      7365      7366      7367      7368      7369
      7370      7371      7372      7373      7374      7375      7376      7377
      7378      7379      7380      7381      7382      7383      7384      7385
! ... 26 like lines cut
/com,*********** Send Named Selection as Node Component ***********
CMBLOCK,FACE_LATERAL2,NODE,      366
(8i10)
      6826      6827      6828      6829      6830      6831      6832      6833
      6834      6835      6836      6837      6838      6839      6840      6841
      6842      6843      6844      6845      6846      6847      6848      6849
      6850      6851      6852      6853      6854      6855      6856      6857
      6858      6859      6860      6861      6862      6863      6864      6865
      6866      6867      6868      6869      6870      6871      6872      6873
      6874      6875      6876      6877      6878      6879      6880      6881
      6882      6883      6884      6885      6886      6887      6888      6889
      6890      6891      6892      6893      6894      6895      6896      6897
      6898      6899      6900      6901      6902      6903      6904      6905
      6906      6907      6908      6909      6910      6911      6912      6913
      6914      6915      6916      6917      6918      6919      6920      6921
      6922      6923      6924      6925      6926      6927      6928      6929
      6930      6931      6932      6933      6934      6935      6936      6937
      6938      6939      6940      6941      6942      6943      6944      6945
      6946      6947      6948      6949      6950      6951      6952      6953
      6954      6955      6956      6957      6958      6959      6960      6961
      6962      6963      6964      6965      6966      6967      6968      6969
      6970      6971      6972      6973      6974      6975      6976      6977
      6978      6979      6980      6981      6982      6983      6984      6985
! ... 26 like lines cut
/com,*********** Send Named Selection as Node Component ***********
CMBLOCK,FACE_INFERIOR,NODE,      126
(8i10)
      6806      6807      6808      6809      6810      6811      6812      6813
      6814      6815      6816      6817      6818      6819      6820      6821
      6822      6823      6824      6825      6826      7187      7188      7189
      7190      7191      7192      7193      7194      7195      7196      7197
      7198      7199      7200      7201      7202      7203      7204      7205
      7206      7207      7208      7209      7210      7211      7212      7213
      7214      7215      7216      7217      7218      7219      7220      7221
      7222      7223      7224      7225      7226      7227      7228      7229
      7230      7231      7232      7233      7234      7235      7236      7237
      7238      7239      7240      7241      7242      7243      7244      7245
      7246      7247      7248      7249      7250      7251      7252      7253
      7254      7255      7256      7257      7258      7259      7260      7261
      7262      7263      7264      7265      7266      7267      7268      7269
      7270      7271      7272      7273      7274      7275      7276      7277
      7278      7279      7280      7281      7282      7283      7284      7285
      7286      7287      7288      7289      7290      7291
/com,*********** Send Named Selection as Node Component ***********
CMBLOCK,FACE_ENTRADA,NODE,     1281
(8i10)
      5606      5607      5608      5609      5610      5611      5612      5613
      5614      5615      5616      5617      5618      5619      5620      5621
      5622      5623      5624      5625      5626      5627      5628      5629
      5630      5631      5632      5633      5634      5635      5636      5637
      5638      5639      5640      5641      5642      5643      5644      5645
      5646      5647      5648      5649      5650      5651      5652      5653
      5654      5655      5656      5657      5658      5659      5660      5661
      5662      5663      5664      5665      5666      5667      5668      5669
      5670      5671      5672      5673      5674      5675      5676      5677
      5678      5679      5680      5681      5682      5683      5684      5685
      5686      5687      5688      5689      5690      5691      5692      5693
      5694      5695      5696      5697      5698      5699      5700      5701
      5702      5703      5704      5705      5706      5707      5708      5709
      5710      5711      5712      5713      5714      5715      5716      5717
      5718      5719      5720      5721      5722      5723      5724      5725
      5726      5727      5728      5729      5730      5731      5732      5733
      5734      5735      5736      5737      5738      5739      5740      5741
      5742      5743      5744      5745      5746      5747      5748      5749
      5750      5751      5752      5753      5754      5755      5756      5757
      5758      5759      5760      5761      5762      5763      5764      5765
! ... 141 like lines cut
/com,*********** Send Named Selection as Node Component ***********
CMBLOCK,FACE_SAIDA,NODE,     1281
(8i10)
      4485      4486      4487      4488      4489      4490      4491      4492
      4493      4494      4495      4496      4497      4498      4499      4500
      4501      4502      4503      4504      4505      4506      4507      4508
      4509      4510      4511      4512      4513      4514      4515      4516
      4517      4518      4519      4520      4521      4522      4523      4524
      4525      4526      4527      4528      4529      4530      4531      4532
      4533      4534      4535      4536      4537      4538      4539      4540
      4541      4542      4543      4544      4545      4546      4547      4548
      4549      4550      4551      4552      4553      4554      4555      4556
      4557      4558      4559      4560      4561      4562      4563      4564
      4565      4566      4567      4568      4569      4570      4571      4572
      4573      4574      4575      4576      4577      4578      4579      4580
      4581      4582      4583      4584      4585      4586      4587      4588
      4589      4590      4591      4592      4593      4594      4595      4596
      4597      4598      4599      4600      4601      4602      4603      4604
      4605      4606      4607      4608      4609      4610      4611      4612
      4613      4614      4615      4616      4617      4618      4619      4620
      4621      4622      4623      4624      4625      4626      4627      4628
      4629      4630      4631      4632      4633      4634      4635      4636
      4637      4638      4639      4640      4641      4642      4643      4644
! ... 141 like lines cut
/golist
/wb,load,start             !  starting to send loads
/com,*********** Define Temperature Constraint ***********
CMBLOCK,_CM46   ,NODE,     1281
(8i10)
      5606      5607      5608      5609      5610      5611      5612      5613
      5614      5615      5616      5617      5618      5619      5620      5621
      5622      5623      5624      5625      5626      5627      5628      5629
      5630      5631      5632      5633      5634      5635      5636      5637
      5638      5639      5640      5641      5642      5643      5644      5645
      5646      5647      5648      5649      5650      5651      5652      5653
      5654      5655      5656      5657      5658      5659      5660      5661
      5662      5663      5664      5665      5666      5667      5668      5669
      5670      5671      5672      5673      5674      5675      5676      5677
      5678      5679      5680      5681      5682      5683      5684      5685
      5686      5687      5688      5689      5690      5691      5692      5693
      5694      5695      5696      5697      5698      5699      5700      5701
      5702      5703      5704      5705      5706      5707      5708      5709
      5710      5711      5712      5713      5714      5715      5716      5717
      5718      5719      5720      5721      5722      5723      5724      5725
      5726      5727      5728      5729      5730      5731      5732      5733
      5734      5735      5736      5737      5738      5739      5740      5741
      5742      5743      5744      5745      5746      5747      5748      5749
      5750      5751      5752      5753      5754      5755      5756      5757
      5758      5759      5760      5761      5762      5763      5764      5765
! ... 141 like lines cut
/com,*********** Define Temperature Constraint ***********
CMBLOCK,_CM48   ,NODE,     1281
(8i10)
      4485      4486      4487      4488      4489      4490      4491      4492
      4493      4494      4495      4496      4497      4498      4499      4500
      4501      4502      4503      4504      4505      4506      4507      4508
      4509      4510      4511      4512      4513      4514      4515      4516
      4517      4518      4519      4520      4521      4522      4523      4524
      4525      4526      4527      4528      4529      4530      4531      4532
      4533      4534      4535      4536      4537      4538      4539      4540
      4541      4542      4543      4544      4545      4546      4547      4548
      4549      4550      4551      4552      4553      4554      4555      4556
      4557      4558      4559      4560      4561      4562      4563      4564
      4565      4566      4567      4568      4569      4570      4571      4572
      4573      4574      4575      4576      4577      4578      4579      4580
      4581      4582      4583      4584      4585      4586      4587      4588
      4589      4590      4591      4592      4593      4594      4595      4596
      4597      4598      4599      4600      4601      4602      4603      4604
      4605      4606      4607      4608      4609      4610      4611      4612
      4613      4614      4615      4616      4617      4618      4619      4620
      4621      4622      4623      4624      4625      4626      4627      4628
      4629      4630      4631      4632      4633      4634      4635      4636
      4637      4638      4639      4640      4641      4642      4643      4644
! ... 141 like lines cut
fcum,add                   ! add nodal forces up (needed in case have loads on the same edge,vertex)
fcum                       ! reset default on fcum command since done sending WB F loads
/com,***************** Define Uniform Initial temperature ***************
tunif,22.
/gst,on,on
fini
*get,_numnode,node,0,count
*get,_numelem,elem,0,count
*get, _MAXELEMNUM, elem, 0, NUM, MAX
*get, _MAXNODENUM, node, 0, NUM, MAX
*get, _MAXELEMTYPE, etyp, 0, NUM, MAX
*get, _MAXREALCONST, real, 0, NUM, MAX
/go
/wb,load,end               !  done creating loads
/com,--- Number of total nodes = %_numnode%
/com,--- Number of contact elements = 0
/com,--- Number of spring elements = 0
/com,--- Number of bearing elements = 0
/com,--- Number of solid elements = 6000
/com,--- Number of condensed parts = 0
/com,--- Number of total elements = %_numelem%
*get,_wallbsol,active,,time,wall
/com,****************************************************************************
/com,*************************    SOLUTION       ********************************
/com,****************************************************************************
/solu
antype,0                   ! static analysis
!eqsl,sparse               ! using sparse solver which is default so no eqsl command needed
cntr,print,1               ! print out contact info and also make no initial contact an error
rescontrol,,none                 ! Do not keep any restart files
dmpoption,emat,no             ! Don't combine emat file for DANSYS
dmpoption,esav,no             ! Don't combine esav file for DANSYS
/com,****************************************************
/com,******************* SOLVE FOR LS 1 OF 1 ****************
d,_CM46,temp,100.
d,_CM48,temp,0.
autots,on
nsub,1,10,1
time,1.
outres,erase
outres,all,none
outres,nsol,all
outres,rsol,all
outres,eangl,all
outres,veng,all
outres,fflux,all
outres,cont,all
cnvtol,heat,,.001,,1.e-006    ! Program Controlled. Set MINREF equivalent of 1e-6 Watts
! *********** WB SOLVE COMMAND ***********
! check interactive state
*get,ANSINTER_,active,,int
*if,ANSINTER_,ne,0,then
/eof
*endif
solve
/com *************** Write FE CONNECTORS ********* 
CEWRITE,file,ce,,INTE
/com,****************************************************
/com,*************** FINISHED SOLVE FOR LS 1 *************
*get,_wallasol,active,,time,wall
/post1
xmlo,ENCODING,ISO-8859-1
xmlo,parm
/xml,parm,xml
fini
/gopr
*get,_walldone,active,,time,wall
_preptime=(_wallbsol-_wallstrt)*3600
_solvtime=(_wallasol-_wallbsol)*3600
_posttime=(_walldone-_wallasol)*3600
_totaltim=(_walldone-_wallstrt)*3600
*get,_dlbratio,active,0,solu,dlbr
*get,_combtime,active,0,solu,comb
/com,--- Total number of nodes = %_numnode%
/com,--- Total number of elements = %_numelem%
/com,--- Element load balance ratio = %_dlbratio%
/com,--- Time to combine distributed files = %_combtime%
/wb,file,end               ! done with WB generated input
